<?xml version="1.0" encoding="UTF-8"?>

<!-- generated on 2026-05-08T20:15:00.874211-03:00 by Eclipse SUMO sumo 1.26.0 -->

<sumoConfiguration xmlns:xsi="http://www.w3.org/2001/XMLSchema-instance" xsi:noNamespaceSchemaLocation="http://sumo.dlr.de/xsd/sumoConfiguration.xsd">

    <input>
        <net-file value="../networks/RL.net.xml"/>
        <route-files value="../routes/RL.rou.xml"/>
        <additional-files value="../additional/RL.add.xml"/>
    </input>

</sumoConfiguration>