<?xml version="1.0" encoding="UTF-8"?>

<!-- generated on 2026-05-26T16:38:11.382729-03:00 by Eclipse SUMO sumo 1.26.0
-->

<sumoConfiguration xmlns:xsi="http://www.w3.org/2001/XMLSchema-instance" xsi:noNamespaceSchemaLocation="http://sumo.dlr.de/xsd/sumoConfiguration.xsd">

    <input>
        <net-file value="Cruzamento.net.xml"/>
        <route-files value="Cruzamento.rou.xml"/>
        <additional-files value="Cruzamento.add.xml"/>
    </input>

</sumoConfiguration>
