<?xml version="1.0" encoding="UTF-8"?>

<!-- generated on 2026-05-26T10:45:45.220699-03:00 by Eclipse SUMO netedit 1.26.0
-->

<additional xmlns:xsi="http://www.w3.org/2001/XMLSchema-instance" xsi:noNamespaceSchemaLocation="http://sumo.dlr.de/xsd/additional_file.xsd">
    <!-- Detectors -->
    <laneAreaDetector id="e2_0" lane="E6_0" pos="51.80" length="20.00" period="300.00" file="e2_0.xml"/>
    <laneAreaDetector id="e2_1" lane="E3_2" pos="56.17" length="20.00" period="300.00" file="e2_1.xml"/>
    <laneAreaDetector id="e2_2" lane="E3_3" pos="56.23" length="20.00" period="300.00" file="e2_2.xml"/>
    <laneAreaDetector id="e2_3" lane="E3_1" pos="56.50" length="20.00" period="300.00" file="e2_3.xml"/>
    <laneAreaDetector id="e2_4" lane="E3_0" pos="56.27" length="20.00" period="300.00" file="e2_4.xml"/>
    <laneAreaDetector id="e2_5" lane="E2_1" pos="47.45" length="20.00" period="300.00" file="e2_5.xml"/>
    <laneAreaDetector id="e2_6" lane="E2_0" pos="47.48" length="20.00" period="300.00" file="e2_6.xml"/>
</additional>
